@<TRIPOS>MOLECULE
Coordinates from ORCA-job SUAM12
 49 51 0 0 0
SMALL
GASTEIGER

@<TRIPOS>ATOM
      1 O          -3.4902    0.8328   -1.6155 O.2     1  LIG1       -0.2736
      2 O          -0.7217   -0.2635    0.6765 O.2     1  LIG1       -0.2756
      3 N          -1.5655    1.7982    0.3079 N.am    1  LIG1       -0.2899
      4 N          -3.9000   -0.7944   -0.0913 N.am    1  LIG1       -0.2999
      5 C          -2.9203    1.3600    0.6524 C.3     1  LIG1        0.1024
      6 C          -3.7045    2.6846    0.7084 C.3     1  LIG1       -0.0243
      7 C          -2.9889    3.5725   -0.3185 C.3     1  LIG1       -0.0350
      8 C          -1.5127    3.1829   -0.1650 C.3     1  LIG1        0.0155
      9 C          -3.4566    0.4347   -0.4553 C.2     1  LIG1        0.2361
     10 C          -3.6970   -1.4430    1.2163 C.3     1  LIG1        0.0148
     11 C          -4.3088   -1.7561   -1.1218 C.3     1  LIG1        0.0148
     12 C          -4.2064   -2.8739    0.9928 C.3     1  LIG1       -0.0357
     13 C          -3.9564   -3.1100   -0.5021 C.3     1  LIG1       -0.0357
     14 C          -0.5432    0.9008    0.3305 C.2     1  LIG1        0.2162
     15 C           0.8238    1.4189   -0.0943 C.3     1  LIG1        0.0245
     16 C           1.9335    0.3932    0.1066 C.3     1  LIG1       -0.0408
     17 C           3.3107    0.9190   -0.3236 C.3     1  LIG1       -0.0272
     18 C           4.4096   -0.0984   -0.1272 C.ar    1  LIG1       -0.0473
     19 C           5.0243   -0.2562    1.1248 C.ar    1  LIG1       -0.0586
     20 C           4.8069   -0.9433   -1.1743 C.ar    1  LIG1       -0.0586
     21 C           6.0082   -1.2271    1.3254 C.ar    1  LIG1       -0.0615
     22 C           5.7918   -1.9156   -0.9798 C.ar    1  LIG1       -0.0615
     23 C           6.3960   -2.0612    0.2721 C.ar    1  LIG1       -0.0617
     24 H          -2.9022    0.8526    1.6241 H       1  LIG1        0.0597
     25 H          -3.6198    3.1116    1.7217 H       1  LIG1        0.0288
     26 H          -4.7727    2.5468    0.4875 H       1  LIG1        0.0288
     27 H          -3.1559    4.6473   -0.1528 H       1  LIG1        0.0281
     28 H          -3.3332    3.3053   -1.3262 H       1  LIG1        0.0281
     29 H          -0.9657    3.2592   -1.1165 H       1  LIG1        0.0465
     30 H          -0.9958    3.8267    0.5715 H       1  LIG1        0.0465
     31 H          -4.2569   -0.9298    2.0141 H       1  LIG1        0.0464
     32 H          -2.6256   -1.4225    1.4679 H       1  LIG1        0.0464
     33 H          -3.7849   -1.5330   -2.0608 H       1  LIG1        0.0464
     34 H          -5.3935   -1.6721   -1.3203 H       1  LIG1        0.0464
     35 H          -5.2868   -2.9320    1.2065 H       1  LIG1        0.0281
     36 H          -3.6976   -3.5993    1.6443 H       1  LIG1        0.0281
     37 H          -4.5478   -3.9379   -0.9199 H       1  LIG1        0.0281
     38 H          -2.8903   -3.3301   -0.6750 H       1  LIG1        0.0281
     39 H           1.0469    2.3510    0.4548 H       1  LIG1        0.0358
     40 H           0.7620    1.7155   -1.1575 H       1  LIG1        0.0358
     41 H           1.9656    0.0884    1.1648 H       1  LIG1        0.0273
     42 H           1.6890   -0.5235   -0.4524 H       1  LIG1        0.0273
     43 H           3.2709    1.2196   -1.3844 H       1  LIG1        0.0313
     44 H           3.5463    1.8330    0.2497 H       1  LIG1        0.0313
     45 H           4.7268    0.3943    1.9526 H       1  LIG1        0.0620
     46 H           4.3395   -0.8330   -2.1572 H       1  LIG1        0.0620
     47 H           6.4770   -1.3312    2.3074 H       1  LIG1        0.0618
     48 H           6.0909   -2.5600   -1.8108 H       1  LIG1        0.0618
     49 H           7.1686   -2.8189    0.4264 H       1  LIG1        0.0618
@<TRIPOS>BOND
     1    46    20    1
     2    33    11    1
     3    48    22    1
     4     1     9    2
     5    43    17    1
     6    28     7    1
     7    34    11    1
     8    20    22   ar
     9    20    18   ar
    10    40    15    1
    11    11    13    1
    12    11     4    1
    13    29     8    1
    14    22    23   ar
    15    37    13    1
    16    38    13    1
    17    13    12    1
    18     9     4   am
    19     9     5    1
    20    42    16    1
    21    17    18    1
    22    17    16    1
    23    17    44    1
    24     7     8    1
    25     7    27    1
    26     7     6    1
    27     8     3    1
    28     8    30    1
    29    18    19   ar
    30    15    16    1
    31    15    14    1
    32    15    39    1
    33     4    10    1
    34    16    41    1
    35    23    49    1
    36    23    21   ar
    37     3    14   am
    38     3     5    1
    39    14     2    2
    40    26     6    1
    41     5     6    1
    42     5    24    1
    43     6    25    1
    44    12    35    1
    45    12    10    1
    46    12    36    1
    47    19    21   ar
    48    19    45    1
    49    10    32    1
    50    10    31    1
    51    21    47    1
