#

@<TRIPOS>MOLECULE
Coordinates from ORCA-job S
 55 59 0 0 0
SMALL
GASTEIGER

@<TRIPOS>ATOM
      1 S           1.3702   -3.4660    1.2462 S.3       1 LIG        -0.1401
      2 O          -0.5833    2.8077    1.4477 O.2       1 LIG        -0.2753
      3 O1         -0.3622   -0.1760   -1.2908 O.2       1 LIG        -0.2735
      4 N          -1.5966    0.8439    0.9715 N.am      1 LIG        -0.2863
      5 N1         -0.2475   -2.2913   -0.4711 N.am      1 LIG        -0.2899
      6 C          -2.8908    1.4760    0.7048 C.3       1 LIG         0.0297
      7 C1         -3.8674    0.3028    0.9194 C.3       1 LIG        -0.0202
      8 C2          0.7942    0.8716    1.5230 C.3       1 LIG         0.0431
      9 C3         -1.6117   -0.5892    0.7210 C.3       1 LIG         0.1030
     10 C4         -3.0860   -0.8926    0.3520 C.3       1 LIG        -0.0212
     11 C5          2.0009    1.5368    0.8546 C.3       1 LIG        -0.0040
     12 C6          1.8571    1.5680    2.3394 C.3       1 LIG        -0.0338
     13 C7         -2.9531    2.0837   -0.7067 C.3       1 LIG        -0.0340
     14 C8         -5.2675    0.5283    0.3353 C.3       1 LIG        -0.0485
     15 C9         -0.5075    1.5903    1.3205 C.2       1 LIG         0.2201
     16 C10        -4.3916    2.3878   -1.1295 C.3       1 LIG        -0.0514
     17 C11        -5.2500    1.1198   -1.0797 C.3       1 LIG        -0.0527
     18 C12        -0.6714   -0.9812   -0.4300 C.2       1 LIG         0.2368
     19 C13         3.0089    0.7230    0.1149 C.ar      1 LIG        -0.0435
     20 C14         2.8589    0.5643   -1.2750 C.ar      1 LIG        -0.0583
     21 C15         4.1125    0.1253    0.7410 C.ar      1 LIG        -0.0583
     22 C16         0.8881   -2.6536   -1.3146 C.3       1 LIG         0.0246
     23 C17        -0.3560   -3.2573    0.5924 C.3       1 LIG         0.0610
     24 C18         2.0810   -2.9236   -0.3741 C.3       1 LIG         0.0110
     25 C19         3.7909   -0.1645   -2.0152 C.ar      1 LIG        -0.0615
     26 C20         5.0453   -0.6092    0.0007 C.ar      1 LIG        -0.0615
     27 C21         4.8904   -0.7545   -1.3801 C.ar      1 LIG        -0.0617
     28 H          -3.0501    2.2739    1.4452 H         1 LIG         0.0503
     29 H1         -3.9606    0.1489    2.0082 H         1 LIG         0.0319
     30 H2          0.8116   -0.2203    1.5419 H         1 LIG         0.0400
     31 H3         -1.3296   -1.1194    1.6432 H         1 LIG         0.0597
     32 H4         -3.1936   -0.9441   -0.7420 H         1 LIG         0.0291
     33 H5         -3.4212   -1.8565    0.7620 H         1 LIG         0.0291
     34 H6          1.7198    2.4680    0.3526 H         1 LIG         0.0356
     35 H7          1.5666    2.5218    2.7843 H         1 LIG         0.0279
     36 H8          2.4988    0.9292    2.9506 H         1 LIG         0.0279
     37 H9         -2.4902    1.3805   -1.4179 H         1 LIG         0.0283
     38 H10        -2.3265    2.9879   -0.7166 H         1 LIG         0.0283
     39 H11        -5.8099    1.2269    0.9975 H         1 LIG         0.0269
     40 H12        -5.8354   -0.4177    0.3579 H         1 LIG         0.0269
     41 H13        -4.4035    2.8246   -2.1416 H         1 LIG         0.0266
     42 H14        -4.8284    3.1495   -0.4565 H         1 LIG         0.0266
     43 H15        -6.2827    1.3315   -1.4032 H         1 LIG         0.0265
     44 H16        -4.8475    0.3823   -1.7977 H         1 LIG         0.0265
     45 H17         1.9868    1.0021   -1.7651 H         1 LIG         0.0620
     46 H18         4.2549    0.2459    1.8169 H         1 LIG         0.0620
     47 H19         1.0909   -1.8317   -2.0102 H         1 LIG         0.0473
     48 H20         0.6359   -3.5615   -1.8872 H         1 LIG         0.0473
     49 H21        -1.0260   -2.9453    1.3977 H         1 LIG         0.0579
     50 H22        -0.7125   -4.2192    0.1910 H         1 LIG         0.0579
     51 H23         2.7447   -3.7026   -0.7747 H         1 LIG         0.0392
     52 H24         2.6670   -2.0143   -0.2008 H         1 LIG         0.0392
     53 H25         3.6585   -0.2753   -3.0952 H         1 LIG         0.0618
     54 H26         5.9009   -1.0634    0.5073 H         1 LIG         0.0618
     55 H27         5.6225   -1.3229   -1.9597 H         1 LIG         0.0618
@<TRIPOS>BOND
     1   53   25 1  
     2   41   16 1  
     3   25   27 2  
     4   25   20 1  
     5   47   22 1  
     6   55   27 1  
     7   48   22 1  
     8   44   17 1  
     9   45   20 1  
    10   37   13 1  
    11   43   17 1  
    12   27   26 1  
    13   22    5 1  
    14   22   24 1  
    15    3   18 2  
    16   20   19 2  
    17   16   17 1  
    18   16   13 1  
    19   16   42 1  
    20   17   14 1  
    21   51   24 1  
    22   32   10 1  
    23   38   13 1  
    24   13    6 1  
    25    5   18 am 
    26    5   23 1  
    27   18    9 1  
    28   24   52 1  
    29   24    1 1  
    30   26   54 1  
    31   26   21 2  
    32   19   21 1  
    33   19   11 1  
    34   50   23 1  
    35   14   40 1  
    36   14    7 1  
    37   14   39 1  
    38   10    9 1  
    39   10   33 1  
    40   10    7 1  
    41   34   11 1  
    42   23    1 1  
    43   23   49 1  
    44    6    7 1  
    45    6    4 1  
    46    6   28 1  
    47    9    4 1  
    48    9   31 1  
    49   21   46 1  
    50   11    8 1  
    51   11   12 1  
    52    7   29 1  
    53    4   15 am 
    54   15    2 2  
    55   15    8 1  
    56    8   30 1  
    57    8   12 1  
    58   12   35 1  
    59   12   36 1  
